
**** 11/18/16 15:34:25 ****** PSpice Lite (October 2012) ****** ID# 10813 ****

 ** Profile: "SCHEMATIC1-bias"  [ C:\Users\Nonordon\Google Drive\school work\College\Fall 2016\CMPE460\Lab8\lab08_pspice-pspicefiles\


 ****     CIRCUIT DESCRIPTION


******************************************************************************




** Creating circuit file "bias.cir" 
** WARNING: THIS AUTOMATICALLY GENERATED FILE MAY BE OVERWRITTEN BY SUBSEQUENT SIMULATIONS

*Libraries: 
* Profile Libraries :
* Local Libraries :
* From [PSPICE NETLIST] section of C:\Users\Nonordon\AppData\Roaming\SPB_16.6\cdssetup\OrCAD_PSpice/16.6.0/PSpice.ini file:
.lib "nomd.lib" 

*Analysis directives: 
.AC DEC 100 0 1000
------------$
ERROR(ORPSIM-16103): Invalid value
.OPTIONS ADVCONV
.PROBE64 V(alias(*)) I(alias(*)) W(alias(*)) D(alias(*)) NOISE(alias(*)) 
.INC "..\SCHEMATIC1.net" 



**** INCLUDING SCHEMATIC1.net ****
* source LAB08_PSPICE
.EXTERNAL INPUT Vout
.EXTERNAL INPUT Vout2
V_V1         N14404 N14392 5Vdc
R_Rf         N14416 N14404  1k TC=0,0 
R_RL         VOUT N14404  1k TC=0,0 
X_U2         N14587 N14497 N14775 0 N14497 uA741
R_R1         N14690 VOUT2  1k TC=0,0 
C_C1         N14678 VOUT2  1n  TC=0,0 
V_RailP         N14775 0 5Vdc
X_Q1         VOUT N16332 N14392 Q2N6059
V_VirtG         N14690 0 200mVdc
V_V2         N14587 0 DC 0Vdc AC 1Vac 
V_V3         N14678 0 DC 0Vdc AC 1Vac 
D_D1         N14416 N14392 D1N3940 
V_V4         N16332 0 DC 0Vdc AC 1Vac 

**** RESUMING bias.cir ****
.END
