
**** 11/18/16 15:25:32 ***** PSpice 16.6.0 (October 2012) ***** ID# 0 ********

 ** Profile: "SCHEMATIC1-HP_Filter"  [ D:\ide\Lab 08\PSPICE-PSpiceFiles\SCHEMATIC1\HP_Filter.sim ] 


 ****     CIRCUIT DESCRIPTION


******************************************************************************




** Creating circuit file "HP_Filter.cir" 
** WARNING: THIS AUTOMATICALLY GENERATED FILE MAY BE OVERWRITTEN BY SUBSEQUENT SIMULATIONS

*Libraries: 
* Profile Libraries :
* Local Libraries :
* From [PSPICE NETLIST] section of C:\Users\kjd2060\cdssetup\OrCAD_PSpice/16.6.0/PSpice.ini file:
.lib "nom.lib" 

*Analysis directives: 
.AC DEC 100 0 300
------------$
ERROR(ORPSIM-16103): Invalid value
.OPTIONS ADVCONV
.PROBE64 V(alias(*)) I(alias(*)) W(alias(*)) D(alias(*)) NOISE(alias(*)) 
.INC "..\SCHEMATIC1.net" 



**** INCLUDING SCHEMATIC1.net ****
* source PSPICE
R_R1         N00218 N00225  16k TC=0,0 
C_C1         N00362 N00225  1uf  TC=0,0 
R_R2         N00362 N00266  1k TC=0,0 
R_R3         N00266 N00417  100k TC=0,0 
V_V2         N00472 0 12V
R_R4         0 N00417  1k TC=0,0 
V_V4         N00218 N00362 DC 0Vdc AC 12V 
X_U1         N00225 N00266 N00472 0 N00417 uA741
V_V5         N00362 0 200mV

**** RESUMING HP_Filter.cir ****
.END
